Version 4
SHEET 1 880 680
WIRE 256 -16 112 -16
WIRE 112 16 112 -16
WIRE 256 112 256 -16
WIRE 112 160 112 112
WIRE 192 160 112 160
SYMBOL npn 48 16 R0
SYMATTR InstName Q1
SYMBOL npn 192 112 R0
SYMATTR InstName Q2
